Version 4
SHEET 1 880 680
WIRE 480 -144 432 -144
WIRE 432 -112 432 -144
WIRE 480 -64 480 -144
WIRE -240 -48 -656 -48
WIRE -80 -32 -176 -32
WIRE -240 -16 -512 -16
WIRE -512 0 -512 -16
FLAG 432 -112 0
FLAG -208 0 0
FLAG -576 -240 0
FLAG -576 -320 5v
IOPIN -576 -320 Out
FLAG -208 -64 5v
IOPIN -208 -64 In
FLAG -512 80 0
FLAG -656 32 0
FLAG -80 -32 out
SYMBOL Comparators\\LT1018 -208 -32 R0
SYMATTR InstName U1
SYMBOL Digital\\dflop 480 -64 R0
SYMATTR InstName A1
SYMBOL voltage -576 -336 R0
WINDOW 123 0 0 Left 0
WINDOW 39 0 0 Left 0
SYMATTR InstName V1
SYMATTR Value 5
SYMBOL voltage -512 -16 R0
WINDOW 123 0 0 Left 0
WINDOW 39 0 0 Left 0
SYMATTR InstName V2
SYMATTR Value 2v
SYMBOL voltage -656 -64 R0
WINDOW 0 -54 18 Left 2
WINDOW 3 -38 -15 Left 2
WINDOW 123 0 0 Left 0
WINDOW 39 0 0 Left 0
SYMATTR InstName V4
SYMATTR Value SINE(2 1 2.5)
TEXT -712 104 Left 2 !.tran 3
